90
 energy: -127.779910661998 gnorm: 0.000545517382 xtb: 6.4.0 (d4b70c2)
C         0.07187428451840    0.82841564094948    1.12421244272435
H         0.98650177027155    0.60455191289998    1.67807947216264
C        -0.89027099412177    1.53802052137845    1.69774346409475
H        -1.78081663847081    1.81415832457340    1.14353654173597
C        -0.85336132387057    2.09552322500431    3.05151276439316
C        -1.70197654679890    3.13251510662888    3.37137090627748
C        -1.70070287138638    3.72124681815274    4.64885787171424
C        -2.55526025183186    4.79418087073381    4.98142424069264
C        -2.53175156190502    5.34353212049149    6.23224944212321
C        -1.65618940787445    4.84567770348366    7.21018159412317
C        -0.81581385002461    3.80720995625598    6.91915355933756
C        -0.81299681230539    3.22160093629163    5.63785605014357
C         0.03861852715066    2.14879370411781    5.29773490087522
C         0.02234708018964    1.60525659705057    4.04718628689885
H        -2.38186180278358    3.51833576288561    2.62363725360854
H        -3.22839084251272    5.17408273365023    4.22569923992614
H        -3.18742481076335    6.16601224072901    6.47912036105061
H        -1.65283362084618    5.29125333338028    8.19431590985355
H        -0.13941514945524    3.42043376382138    7.66869614434980
H         0.70794612787234    1.76072805892069    6.05332666792738
H         0.67430913152189    0.77621620320457    3.81387120195927
C         0.52941866016197    1.63342451929401   -1.35859951011076
H         1.20233797393514    2.15922635186823   -0.66566349685010
C         1.30315794247754    1.35159670891494   -2.64741389986478
H         0.65366390226583    1.07436749750773   -3.47180583802175
H         2.03759642772714    0.56048363395118   -2.50280695315856
H         1.84203619668586    2.26115335699920   -2.92612119928182
C        -0.71745119786345    2.41352240535317   -1.51981935632726
C        -1.66010039147814    2.15809302885844   -2.52538766459924
C        -2.79601336628177    2.93166691548897   -2.64909166738596
C        -3.03008567733268    3.98431978586318   -1.77790059282343
C        -2.10301851351446    4.26405865379323   -0.78638216106885
C        -0.96536227277583    3.49331210260166   -0.65871287511645
H        -1.51842425142225    1.33071170343696   -3.20323609372417
H        -3.50817554554907    2.70957101297866   -3.43050487626547
H        -3.92482666546439    4.58211081393239   -1.87229094033979
H        -2.26624604077132    5.09267748929306   -0.11163026667785
H        -0.24313739714572    3.73239995466122    0.10895786582669
Br       -0.65186621759187   -1.26196342230956   -2.41489691772966
Ni       -0.02019329740326   -0.12042681903056   -0.49653677776418
C        -0.07095579833800   -2.63302957990687    0.76978219097621
C         1.28719760735397   -2.53308414829972    0.26415877297898
C         3.11311209435845   -1.69859039091811   -0.65242164487707
C        -2.16266491151505   -2.06366351768879    1.21043759394282
N        -0.88208608067776   -1.65437767606273    0.67666677701889
N         1.75456080807130   -1.44239615673879   -0.20917208503611
O         2.06725632194935   -3.61423581881140    0.24659195272736
O        -0.52083996022583   -3.76338540045436    1.31865146219460
C         3.27733799622708   -3.22031031304445   -0.39551946891367
C        -1.91236515583344   -3.55150748199572    1.56955660567553
H         3.18142391864735   -1.45911443524967   -1.71933787208668
H        -2.36688536306950   -1.45752376193929    2.10328520039464
H         3.38370290076837   -3.79945731225914   -1.31620473624482
H        -2.11550065002247   -3.78579007575133    2.61570765929770
H         4.10604328758934   -3.45175505674965    0.27744443263043
H        -2.47553391452798   -4.23363741513281    0.92572739778040
C         4.14481307749962   -0.85305002643876    0.11518331553553
C         6.27519900778025    1.17519909662456    0.32449111223782
C         6.58016575966035   -0.31735854160418    0.40215016613034
C         4.85542168699140    1.45108298093565    0.80855341855081
C         5.56009705796191   -1.12112683114793   -0.40151211149978
C         3.85214633826762    0.64166798039380   -0.00621266908395
H         6.99300114212155    1.73271044342170    0.92913024938251
H         6.37594292152024    1.51141568891430   -0.70981491639540
H         7.58366579281305   -0.51374690217051    0.01971865545500
H         4.77232479039730    1.18265919559787    1.86450050128344
H         6.55224863433536   -0.63920903964254    1.44594558668685
H         4.62985885712310    2.51508959541754    0.71680166227279
H         5.80405727654266   -2.18359685152494   -0.33973883684928
H         3.92149313848134    0.93584434413030   -1.05506135946816
H         5.61554913232614   -0.82966631094112   -1.45301164865177
H         2.83794574163567    0.84555241307607    0.33333099565061
H         4.08950437881922   -1.13704105646941    1.17380424068319
C        -3.28287329808835   -1.82367646777506    0.18593905160136
C        -5.80649770663883   -0.62402916378640   -0.73289035493871
C        -5.70135480281518   -2.10512695535755   -0.38222127546635
C        -4.45445596297638   -0.08821917326744   -1.19321220207541
C        -4.63284257532966   -2.33681350231647    0.68468848400957
C        -3.40117729158700   -0.33014018543651   -0.12061597655626
H        -6.55166315323847   -0.48223519185411   -1.51775803880402
H        -6.13669312293067   -0.06635602429201    0.14715624993365
H        -6.66463392307963   -2.47355210598266   -0.02304265458512
H        -4.15037946141003   -0.59075358852488   -2.11330402560268
H        -5.43901412554460   -2.66934113379574   -1.27960324126485
H        -4.52367084829134    0.98101106352329   -1.40242900740679
H        -4.58075719305816   -3.40135928724463    0.92320724007668
H        -3.67342636829401    0.20431125436921    0.79349015891929
H        -4.90573678318083   -1.80369618225790    1.59920356180266
H        -2.43198841139758    0.06214685828078   -0.46075614021132
H        -3.01817351239737   -2.35021907992676   -0.73799752452855
