   90
FINAL HEAT OF FORMATION =  -127.777414
 C     0.094232     0.997123     0.916661
 H     1.044355     0.846820     1.432473
 C    -0.900846     1.618858     1.541903
 H    -1.815519     1.869682     1.017779
 C    -0.856508     2.119530     2.914114
 C    -1.751974     3.094334     3.297913
 C    -1.731965     3.649413     4.589904
 C    -2.629178     4.665183     4.984111
 C    -2.579466     5.190038     6.244654
 C    -1.634294     4.722851     7.171530
 C    -0.753123     3.737819     6.821064
 C    -0.775891     3.178918     5.528236
 C     0.117024     2.162063     5.126947
 C     0.080450     1.650120     3.863668
 H    -2.480189     3.461530     2.587207
 H    -3.355097     5.022025     4.266990
 H    -3.267300     5.969789     6.538302
 H    -1.609679     5.149564     8.163688
 H    -0.023190     3.374794     7.531247
 H     0.836127     1.793058     5.845471
 H     0.764826     0.863158     3.582571
 C     0.466459     1.779304    -1.161738
 H     1.133524     2.377119    -0.531015
 C     1.263823     1.405368    -2.422763
 H     0.618647     1.167923    -3.264125
 H     1.933159     0.561042    -2.247275
 H     1.881037     2.263822    -2.699081
 C    -0.770354     2.558373    -1.414211
 C    -1.705909     2.218844    -2.396423
 C    -2.837090     2.986020    -2.595660
 C    -3.072091     4.108552    -1.818527
 C    -2.154488     4.463795    -0.843045
 C    -1.021230     3.700626    -0.643980
 H    -1.563975     1.339200    -3.005158
 H    -3.543149     2.702623    -3.362612
 H    -3.961582     4.701904    -1.971897
 H    -2.321668     5.342374    -0.236140
 H    -0.308918     3.994106     0.114528
Br    -0.655393    -1.299934    -2.445715
Ni    -0.029883    -0.108181    -0.567817
 C    -0.076516    -2.620580     0.808113
 C     1.282780    -2.530976     0.299062
 C     3.121103    -1.735077    -0.626788
 C    -2.167806    -2.061435     1.250700
 N    -0.887360    -1.642437     0.723800
 N     1.760892    -1.455502    -0.196423
 O     2.052354    -3.619687     0.307953
 O    -0.521305    -3.755129     1.353793
 C     3.272046    -3.250788    -0.329063
 C    -1.909369    -3.545539     1.621531
 H     3.197433    -1.525423    -1.699639
 H    -2.386347    -1.450001     2.135773
 H     3.386828    -3.854205    -1.232886
 H    -2.097533    -3.769568     2.672900
 H     4.090169    -3.470035     0.360736
 H    -2.479148    -4.235959     0.992826
 C     4.156094    -0.878443     0.124574
 C     6.324984     1.112083     0.314844
 C     6.593641    -0.382951     0.455016
 C     4.897745     1.436492     0.743676
 C     5.577705    -1.195560    -0.345398
 C     3.903232     0.615813    -0.070614
 H     7.036506     1.675405     0.921494
 H     6.465115     1.408474    -0.727073
 H     7.602304    -0.614537     0.107483
 H     4.776265     1.211927     1.806119
 H     6.531186    -0.665085     1.508761
 H     4.698824     2.500612     0.603278
 H     5.799171    -2.259054    -0.237630
 H     4.018551     0.862563    -1.127906
 H     5.665887    -0.945522    -1.405311
 H     2.883948     0.858428     0.223411
 H     4.070609    -1.113350     1.193077
 C    -3.279987    -1.843081     0.212356
 C    -5.797040    -0.661451    -0.746325
 C    -5.696196    -2.134562    -0.362566
 C    -4.442115    -0.138696    -1.213252
 C    -4.633567    -2.343000     0.714823
 C    -3.392716    -0.357613    -0.131759
 H    -6.538985    -0.535489    -1.536981
 H    -6.129376    -0.083961     0.119995
 H    -6.661852    -2.493659    -0.000295
 H    -4.136508    -0.662841    -2.120739
 H    -5.430155    -2.719072    -1.245783
 H    -4.509419     0.925648    -1.446569
 H    -4.583793    -3.401759     0.978341
 H    -3.665163     0.200124     0.768010
 H    -4.910646    -1.788627     1.615246
 H    -2.419049     0.020617    -0.478646
 H    -3.009395    -2.392512    -0.696437
