   90
FINAL HEAT OF FORMATION =  -127.775250
 C    -0.066643     0.672811     1.163382
 H    -1.129164     0.892349     1.047827
 C     0.730318     1.545587     1.775429
 H     1.759650     1.284329     1.995924
 C     0.341096     2.873231     2.242014
 C    -0.904078     3.458897     1.911079
 C    -1.249397     4.693493     2.372617
 C    -0.375426     5.435310     3.196065
 C    -0.706655     6.709954     3.694649
 C     0.168777     7.397850     4.488528
 C     1.414674     6.840514     4.816159
 C     1.765369     5.606215     4.346217
 C     0.883834     4.869272     3.526545
 C     1.211820     3.594032     3.031970
 H    -1.588635     2.921729     1.272884
 H    -2.205522     5.125450     2.110523
 H    -1.667739     7.133938     3.438932
 H    -0.091563     8.374538     4.869671
 H     2.094143     7.397580     5.444888
 H     2.723772     5.173916     4.597875
 H     2.172903     3.172656     3.295667
 C     0.013083    -1.472589     1.914882
 H     0.008528    -0.840754     2.808006
 C     1.094553    -2.531691     2.160581
 H     1.179656    -3.276376     1.375541
 H     2.066916    -2.069046     2.315905
 H     0.828097    -3.051061     3.085780
 C    -1.357743    -2.012868     1.730406
 C    -1.646430    -3.129061     0.937327
 C    -2.927151    -3.643918     0.880784
 C    -3.950891    -3.072099     1.618840
 C    -3.683498    -1.967693     2.412532
 C    -2.409530    -1.439505     2.458806
 H    -0.866663    -3.604198     0.362690
 H    -3.126500    -4.506277     0.261088
 H    -4.948236    -3.485038     1.580117
 H    -4.470570    -1.522745     3.004614
 H    -2.209613    -0.582868     3.088707
Br     1.111699    -2.444750    -1.298454
Ni     0.417442    -0.707215     0.027306
 C     1.170922     1.013726    -2.208573
 C    -0.166400     0.554946    -2.547869
 C    -2.161977    -0.351946    -2.371341
 C     3.057805     1.261857    -1.089885
 N     1.713779     0.722634    -1.094336
 N    -0.921638    -0.022049    -1.696995
 O    -0.610214     0.696853    -3.798332
 O     1.876880     1.736190    -3.079761
 C    -1.870263     0.032527    -3.844721
 C     3.160514     1.930913    -2.485010
 H    -2.345180    -1.425740    -2.260414
 H     3.131534     1.997556    -0.279700
 H    -1.774460    -0.839894    -4.497394
 H     3.361397     3.002895    -2.436387
 H    -2.610393     0.717653    -4.263246
 H     3.903697     1.449136    -3.126345
 C    -3.360161     0.418764    -1.783018
 C    -4.674559     2.009933     0.320846
 C    -5.008778     0.537262     0.110788
 C    -4.232134     2.643201    -0.994536
 C    -3.811774    -0.208910    -0.467474
 C    -3.033160     1.899105    -1.574588
 H    -5.545273     2.539340     0.713046
 H    -3.873477     2.096839     1.058416
 H    -5.298417     0.079373     1.057772
 H    -5.059742     2.609423    -1.707465
 H    -5.855051     0.452572    -0.575546
 H    -3.969792     3.691644    -0.836805
 H    -4.073114    -1.256714    -0.629518
 H    -2.186828     1.982681    -0.889000
 H    -2.983717    -0.186915     0.240876
 H    -2.737467     2.361217    -2.520278
 H    -4.179549     0.333495    -2.507764
 C     4.076223     0.138074    -0.843307
 C     6.214809    -1.223940     0.638686
 C     6.474820    -0.542529    -0.701508
 C     4.761531    -1.678921     0.737080
 C     5.520133     0.631964    -0.909997
 C     3.827706    -0.494396     0.525163
 H     6.882011    -2.080141     0.752974
 H     6.430088    -0.521957     1.448341
 H     7.507309    -0.189755    -0.746283
 H     4.557702    -2.437029    -0.021197
 H     6.332393    -1.266347    -1.506712
 H     4.580496    -2.128603     1.715561
 H     5.727777     1.104615    -1.872254
 H     3.997510     0.253348     1.304837
 H     5.682465     1.380750    -0.130443
 H     2.778313    -0.816207     0.586590
 H     3.923322    -0.628276    -1.611924
