85
 energy: -128.737596420433 gnorm: 0.000420822997 xtb: 6.4.0 (d4b70c2)
C         1.21800040567607   -0.86488292456798    0.27527118793039
H         1.53295798827288   -1.91698626245080    0.32981039658413
C         2.11500906400752    0.09939026070220    0.45066317510823
H         1.82452858351246    1.14086536613899    0.39359914761055
C         3.54130549649974   -0.10254067641595    0.70116241745869
C         4.10052026016255   -1.33360055417004    1.05448182579446
C         5.45328669313946   -1.46168924962357    1.27351497840430
C         6.30392569065942   -0.36235965644465    1.14545041712806
C         5.76205224426733    0.86915654502682    0.79531004497526
C         4.40106596750626    0.98819039179392    0.58348458999143
H         3.46926525004363   -2.20150442309049    1.17546803359207
H         3.99238450474828    1.95179781065141    0.31485475485556
O         7.62611095286261   -0.60083685509005    1.38573300488984
C         8.52478018688875    0.47742882850457    1.30998773681448
H         9.50182376953292    0.06592072513557    1.55897942696071
H         8.55951808004564    0.90382742420636    0.30169770831863
H         8.27088445171644    1.26423566231398    2.02802450435610
H         6.38671717717783    1.74238597380725    0.68863783224141
H         5.88431201182847   -2.41057657111140    1.55321703185148
C        -0.92241084535393   -0.72457913513500    1.59733824870185
H        -1.98391251972417   -0.49716478102874    1.40716089055775
C        -0.37001366410085    0.36450562390154    2.50442746138397
H        -0.94774349501992    0.35921246403313    3.43238365472621
H         0.67704652415094    0.22185909026433    2.75435085762742
H        -0.48334214241400    1.34136529109748    2.04185134872512
C        -0.78796173212409   -2.09780445745495    2.11444796551217
C        -1.86582958942576   -2.98965653476658    2.01574424430839
C        -1.78355105293404   -4.27443991019585    2.51341993085332
C        -0.62123936575744   -4.71344398620482    3.12698504177194
C         0.45156140562679   -3.84320823333174    3.24923123462151
C         0.37128191222270   -2.55615728664781    2.75875136366398
H        -2.78362731106423   -2.65311363297212    1.55399058817397
H        -2.63329131047968   -4.93790610128788    2.42986627984509
H        -0.55478881590241   -5.71971407327642    3.51353718082569
H         1.35786809861788   -4.17336562646746    3.73710267368185
H         1.21767529003189   -1.89496121172075    2.86707914994482
Br       -0.72086077675794    1.45258158852870   -0.81885178251306
Ni       -0.51722517183147   -0.86484814416863   -0.36657442473225
C        -1.60973333911417   -3.28358592105233   -2.35382231806679
C        -2.57265503908532   -2.17739620113345   -2.01253950492920
C        -0.32713390093983   -2.62113225518048   -2.77677605335447
C        -4.25839591256296   -0.44985743977972    0.20386371915464
C         1.39811426810544    0.13083422965257   -3.29400104294287
C        -3.56230848126063   -0.40123912435029   -1.13392637966352
C         1.45920964058420   -1.31453340476679   -2.86830970318549
N        -2.38957733226693   -1.27884802010360   -1.13359482385484
N         0.24467156605278   -1.68017417185097   -2.14594940971054
C        -4.89231654837257   -1.61049041907146    0.63096985356975
C         0.35568821089038    0.57398008827497   -4.09774795365829
C        -4.23186984613553    0.66094215319648    1.03792751331349
C         2.35821177748889    1.03212606971464   -2.86007408471474
C        -5.50162605218658   -1.65693591616037    1.87277710543617
C         0.26919274910281    1.90618847469043   -4.45419458763330
C        -4.83917815933245    0.61026318837466    2.28043573698492
C         2.26966951391811    2.36484576750074   -3.21898208934123
C        -5.47544486601952   -0.54635728273160    2.69882521907578
C         1.22471772406758    2.80395856397318   -4.01182019218896
O        -3.70707947949404   -2.12225462774927   -2.72572482728817
O         0.27381053428372   -3.07592614010987   -3.88357725621328
C        -4.40896769575211   -0.95625199009984   -2.30140403795533
C         1.46720793561383   -2.31438296240788   -4.05139021206332
H        -4.90643766989561   -2.48700905769608   -0.00440583075473
H        -0.40572740551818   -0.12133525403409   -4.42769407409168
H        -5.41910246014872   -1.24198739602536   -1.99868923952675
H         1.43025647214794   -1.81218938245145   -5.02195495775389
H        -3.22941539349214    0.62361147440613   -1.32436993130121
H         2.31906058911857   -1.45957496598076   -2.20512069627429
H        -3.71921993612343    1.55538206085164    0.71583597446392
H         3.16424497656473    0.69079610432231   -2.22668958269578
H        -5.99012854899945   -2.56411851751827    2.19752467490369
H        -0.55347564682984    2.24682254825628   -5.06458337088526
H        -4.81092351692387    1.47608635128266    2.92441865028670
H         3.01261049257736    3.06416704633893   -2.86659587263639
H        -5.94748368962042   -0.58597207180703    3.66915777089021
H         1.14683047299315    3.84722101787898   -4.27606887786510
H        -4.46779276880032   -0.26077466259481   -3.14294527730847
H         2.32112084635505   -2.99590230661396   -4.02815325888139
C        -1.31508569972414   -4.12881821101496   -1.10488924928198
H        -0.60057573710040   -4.91259898864625   -1.34809272268790
H        -2.22945758748588   -4.58999639569496   -0.73853327925197
H        -0.89946804183745   -3.51113749183765   -0.31031765362548
C        -2.16361882092130   -4.16055150558319   -3.47432446526765
H        -1.44245308021067   -4.93332153571407   -3.72791551245884
H        -3.09007894463002   -4.62992972358668   -3.15276090821696
H        -2.36702038328139   -3.57042455563816   -4.36437710367758
