82
 energy: -125.542420353875 gnorm: 0.000489821294 xtb: 6.4.0 (d4b70c2)
C         1.21610858962077   -0.37987429026724    1.17058124543216
H         1.74552239598321   -1.33220822436234    1.19985523779066
C         1.88052528605855    0.72557804382922    0.80230876034533
H         1.38552933715657    1.69055643868566    0.77604938423794
C         3.25832579370514    0.74312508983890    0.33681514889656
C         4.16977652411884   -0.28338789266092    0.60946130397476
C         5.46323158558481   -0.22379504143974    0.14820647615921
C         5.90057148898107    0.86442151450013   -0.61145622777296
C         5.00799879499408    1.89617853483839   -0.88420562245953
C         3.71289650745054    1.83125978723284   -0.40871003321727
H         3.86866839438879   -1.12977385315244    1.20811727373015
H         6.16860062896575   -1.01145493882303    0.36307729770875
O         7.19849763133376    0.82009257734202   -1.01990169562354
C         7.69301198861509    1.87808925436780   -1.80353049430910
H         8.72938232319384    1.62459207360358   -2.02150814132563
H         7.66047808961171    2.82929856361666   -1.26221165063685
H         7.13929890361288    1.97524024285541   -2.74279844335743
H         5.30963140897803    2.75337580355801   -1.46547255056753
H         3.02954944256301    2.63597441080581   -0.63710127875305
C         0.02846102279879   -0.37130214664963    3.00384067060741
H        -0.20647970363042   -1.41541285795436    3.21319452049209
C         1.19859815839561    0.09068860240008    3.85004346379179
H         2.06445612913296   -0.55448617129771    3.72185768884163
H         0.90400379616150    0.06034258586018    4.90245717462053
H         1.49080126127606    1.10983808197977    3.61151929560448
C        -1.16009723906213    0.50640563145129    3.12466180773400
C        -1.11473126338559    1.86852613763417    2.80176378849668
C        -2.18952875531645    2.69534904417019    3.06652803580074
C        -3.32193570184950    2.19421633595619    3.68852704406024
C        -3.38502573364572    0.84729758577291    4.01334188582902
C        -2.32272526254429    0.01127966352212    3.73018440996260
H        -0.22614032463179    2.27780810067597    2.34377693580802
H        -2.13905531321497    3.74159913503423    2.80095627068940
H        -4.14739948604392    2.84854131766234    3.92913095459641
H        -4.26444189227789    0.45122000277545    4.50280481803169
H        -2.37674122799123   -1.03542017339630    3.99860491912225
Br       -0.87514798240127   -0.00690002931071   -1.57232761924749
Ni       -0.68081473473610   -0.52631087136044    0.85362612374029
C        -3.03155347865037   -2.01759859743485    0.48656366877039
C        -1.94820299802364   -2.97324275615530    0.37096769922851
C         0.11431002222591   -3.75860168851968    0.37768108254244
C        -4.04328755073853   -0.07707385431543    0.75325524169420
N        -2.79608055227364   -0.80721164443410    0.82423740981087
N        -0.74975370787435   -2.63200422482903    0.65905767379055
O        -2.15307638391483   -4.21047840808757   -0.08561222282369
O        -4.29001440654459   -2.35867886645349    0.19820408160425
C        -0.86272764824789   -4.81273138407850   -0.19856571703882
C        -5.05772626014194   -1.15874932955173    0.30492097359253
H         0.86015559522582   -3.44858722214407   -0.36154192808736
H        -4.27765972362951    0.30876771829418    1.75208687607615
H        -0.86262765424421   -5.74655396779289    0.36858813715984
H        -5.85965980779935   -1.32238899373676    1.02837413669943
H        -0.67557998396298   -5.03122913026313   -1.25255739055666
H        -5.49473387485112   -0.93802914533779   -0.67245308019891
C        -3.94082810216598    1.10590761579323   -0.22032424060045
C        -7.67791938734526    3.19878260225756   -0.37047372255588
C        -7.27151158871894    2.42707187557629   -1.44471644019778
C        -6.86345544664317    3.30454316147841    0.74473171069361
C        -6.06078227647289    1.75724077722600   -1.40087221987556
H        -3.66142312611763    0.73711687518574   -1.20840759803791
C        -5.65395419840617    2.63594568366801    0.78548792759337
C        -5.23986892429815    1.85210065777069   -0.28491416712327
H        -3.14006927716341    1.75907539301824    0.13504205117875
H        -8.62239520031700    3.72152877189994   -0.40370515787212
H        -7.89795485164542    2.34741379368293   -2.32108470320877
H        -7.17169981160814    3.91315601741500    1.58267021622227
H        -5.74311099546060    1.16778923130147   -2.24923826057308
H        -5.01397824309035    2.72664050396823    1.65110481105561
C         0.83474051118432   -4.22857537676729    1.65122377542705
C         3.84677926188282   -7.10792313489483    0.64633669697153
C         2.69156656661844   -7.51387984219324    1.29037085063513
C         4.02803949399405   -5.76943102449661    0.33984260146554
C         1.71935515546457   -6.58603661882456    1.62303543981423
H         0.10199544082134   -4.64618054472339    2.34548879006971
C         3.05685435745038   -4.84429081669868    0.67418824465125
C         1.89121241614996   -5.24302760889747    1.31884192560863
H         1.29096946497563   -3.35638735539299    2.12321456880566
H         4.60496024749828   -7.83115387203633    0.38613253296412
H         2.54535566170844   -8.55548060066931    1.53555088361582
H         4.92864543771615   -5.44528953737579   -0.15989429150814
H         0.82291084576831   -6.91053789913569    2.13306051779360
H         3.20566411939272   -3.80122530379589    0.43325243485389
