82
 energy: -125.541522056204 gnorm: 0.000644776579 xtb: 6.4.0 (d4b70c2)
C         1.33529280018386   -0.80512864115525    0.78894541287728
H         2.05410594502156   -1.53561742214344    0.41719887345451
C         1.75452387276967    0.41508757048239    1.15611060233758
H         1.06087548328721    1.13583315375987    1.57654062900332
C         3.10829805917029    0.91167917110525    0.97362496986682
C         4.20068500107142    0.07949422783561    0.69872047702100
C         5.46024463332674    0.59868866679127    0.51932474089170
C         5.68408822856134    1.97568312891518    0.60431029429467
C         4.61088426035883    2.81471612305604    0.88808012428726
C         3.34978288351135    2.28283180559178    1.07233535067200
H         4.06646202186036   -0.98986220612339    0.63826012951679
H         6.30220628990567   -0.04265642346828    0.30959459609590
O         6.96727494061921    2.38185627269957    0.40371813250906
C         7.25414310392195    3.75768667840946    0.45744793071661
H         8.31908589000044    3.84557343716929    0.24776263780339
H         6.69003391782645    4.31572655252461   -0.29660714546017
H         7.04603942263998    4.17343123279695    1.44882307604866
H         4.74524595147578    3.88225788815614    0.96543388557606
H         2.52584674048764    2.94931555698007    1.28186833568837
C         0.02022500296834   -1.91309938613220    2.13704708971923
H        -1.05658644883608   -1.76021347017464    2.04125041770408
C         0.50366887036126   -1.28684736767705    3.42874028311107
H         0.09107330940034   -1.84924292960910    4.27038423766404
H         1.58659856094495   -1.29141947220593    3.51749582309365
H         0.16229554204142   -0.25809012196768    3.51012997530785
C         0.39938287113659   -3.31665274392424    1.91508299851934
C         1.68406578089002   -3.78805233359618    2.20250553495908
C         2.01456496332626   -5.11479670830342    2.00505497657717
C         1.07384306206071   -6.00587003322038    1.51448481997527
C        -0.20509887399582   -5.55652106615382    1.22594875122762
C        -0.53769251116537   -4.23149709398006    1.42438496782365
H         2.43322157705550   -3.10614808400601    2.57624594786749
H         3.01410659911520   -5.45759732794908    2.23014200448995
H         1.33506832936251   -7.04233098604599    1.35979245347321
H        -0.94769056369257   -6.24629734631637    0.84941953584033
H        -1.54324285979122   -3.89722519721473    1.20800385030856
Br       -0.54828455089329    0.53102776139038   -1.81135868114332
Ni       -0.42757072851128   -1.09929725798136    0.06568397046540
C        -2.36549441160671   -2.57991018660431   -1.28879661731385
C        -1.09684990359782   -3.02702557108421   -1.83051000427623
C         1.08527309568898   -3.13726205006513   -2.12943947210331
C        -3.77478385258188   -1.38790835479877   -0.07746137101368
N        -2.39677507608843   -1.75983731665689   -0.30699170180660
N         0.00423984106660   -2.66394548543745   -1.29178304962050
O        -1.03919843028090   -3.75014420444355   -2.95088564951820
O        -3.52766847739357   -2.95324459198100   -1.82686888234002
C         0.34493993746063   -3.84787473512565   -3.28941809433858
C        -4.54272419592324   -2.23520062297463   -1.12230279690394
H         1.64675446907385   -2.26406823395502   -2.47983810813072
H        -4.05581158468129   -1.65706415199018    0.94847706467261
H         0.60904940364377   -4.90481077955386   -3.37332728306397
H        -5.22784928122566   -2.95660440951760   -0.67035362706113
H         0.49828138488705   -3.35878913619801   -4.25404958103438
H        -5.09219795310443   -1.61727967726884   -1.83644643514148
C        -3.94715070331454    0.12772133936941   -0.26644198102275
C        -8.03211120914049    1.25265660398620    0.37690059861340
C        -7.50720767315505    1.24613544226984   -0.90345822965769
C        -7.22749282053432    0.90814332897022    1.45000692407457
C        -6.18575143816768    0.89033024052991   -1.11071386843603
H        -3.62076616935891    0.39875996538320   -1.27242756438391
C        -5.90740790481475    0.55386007363131    1.24072315356922
C        -5.37169650112517    0.53928162644227   -0.04187936978638
H        -3.28642456819452    0.63072887600705    0.44492826852963
H        -9.06257627413795    1.53141276587376    0.53974062544357
H        -8.12717384548444    1.52146334514678   -1.74391099540217
H        -7.62924539788501    0.91967956193087    2.45274737634428
H        -5.77799690304758    0.90209589861549   -2.11158964017605
H        -5.28150688942936    0.29623110662584    2.08382197143411
C         2.03479007053785   -4.06177993856900   -1.35643010457434
C         5.63188747429034   -4.71319780154129   -3.59436047193009
C         4.70180164937808   -5.73013192897766   -3.47150033062608
C         5.39759741373995   -3.49134966762836   -2.98560579164542
C         3.54096848098832   -5.52548111485968   -2.74527567542125
H         1.52486808614905   -5.00149209775687   -1.13552761214882
C         4.23796580691597   -3.28916271899260   -2.26056349339518
C         3.29649802698110   -4.30447414737188   -2.13292069417118
H         2.27029890801083   -3.58407740275700   -0.40454075786531
H         6.53755173290379   -4.87245528841182   -4.16029099738310
H         4.87957612250180   -6.68623090731442   -3.94154717891087
H         6.12066691126464   -2.69431083092582   -3.07461370400169
H         2.82243418179851   -6.32714395071565   -2.64642656005386
H         4.06126108905495   -2.33364847972062   -1.78733029808094
