78
 energy: -120.274364141728 gnorm: 0.000595897149 xtb: 6.4.0 (d4b70c2)
C         3.07603983838009   -1.93995178540020   -0.32811050608441
C         3.15408526994054   -5.23465257836001   -3.07229246131611
H         3.16167085506854   -6.18998122983136   -2.55340327822464
H         4.01689808866539   -5.18327923718266   -3.73138856089038
H         2.25655464756794   -5.19165042544326   -3.69076831811212
C         2.58333620785493   -3.18166823228525    0.06604522550298
C         3.15695053336462   -4.09480335727446   -2.09965900668397
C         3.69278964886624   -2.86054192151306   -2.45513686883446
C         2.61472134476507   -4.24106025425409   -0.82970088721190
C         3.67645301560832   -1.79042793179762   -1.57767504125443
H         4.13624219605553   -2.73442949674488   -3.43232711897490
H         2.21751402001014   -5.19986641959309   -0.52607947529808
H         4.13305455014956   -0.85379469553673   -1.86656015008902
H         2.19702053201902   -3.34935786484020    1.06285145827531
C         3.67114524484957   -0.62080445922671    1.12373327511626
H         3.02824995393869    0.27915545056723    1.27709930059991
C         5.26969617467891    1.12986625542483    0.33534876599576
C         6.02642726670369   -1.14267058703110    0.42938447014264
C         7.27167669468371   -0.74540842654548   -0.01721478348485
C         6.51549687676196    1.52350116025001   -0.11794873229498
C         7.52231832772749    0.58964532879606   -0.29048377177271
C         5.00701443486244   -0.20870459236110    0.62141142800934
H         5.83548467356612   -2.19080259000032    0.61133444696591
H         4.49036900752459    1.86821724732126    0.45086297561845
H         8.04841161724985   -1.48244709524400   -0.16114589066107
H         6.69668248875834    2.56424170965144   -0.34017041866089
H         8.49513155610811    0.89683638494212   -0.64457395583236
C         3.72290582083244   -1.42678445607209    2.41490953343925
O         4.13302182300706   -0.61326504285037    3.49823984049619
H         4.39619004058417   -2.28852543949861    2.31250721708018
H         2.73299358341997   -1.79181240686048    2.69688377655059
H         4.99253350985351   -0.23162871222528    3.28353806363980
Br        1.99468307862471    1.39411025332737   -1.24966955049517
Ni        1.77832968356091   -0.61736655462326    0.14537727706312
C        -0.75162580833428   -0.53876313524649    1.38634072536623
C        -0.98256930610227   -0.83039777899872   -0.01374624092064
C        -0.49024886101082   -1.22872075828089   -2.13222522449527
C         0.37487636599129   -0.03983954039882    3.21816886012517
N         0.44621905482492   -0.40942195218433    1.82015939700482
N         0.01424052032566   -1.03041312726013   -0.79125270758596
O        -2.20493291551352   -0.85265850268000   -0.55061475770308
O        -1.75347962774678   -0.37194216769421    2.25218067802566
C        -2.01885065614858   -1.06122104001550   -1.95397094356841
C        -1.14608349635567   -0.06837281411462    3.50979680975708
H        -0.06447941662228   -0.45649918362257   -2.78199903362349
H         0.91789600123926   -0.77825101860841    3.81815375771219
H        -2.57812103628344   -1.95189269862325   -2.25032464405805
H        -1.42948779142263   -0.84328202190999    4.22653498227522
H        -2.41505355952419   -0.19330041748440   -2.48572783865567
H        -1.52533569404757    0.89507456271373    3.85703589806069
C         1.01799364768452    1.33721836877057    3.44758715857180
C         1.04542883309329    2.20566181074985    7.64068212799274
C         0.12316478312126    2.82604756352683    6.81671217240569
C         1.96689172456932    1.32368590531534    7.10016266297128
C         0.11539647290859    2.55810542867378    5.45835860967774
H         0.47287715694347    2.08990083147377    2.87416375830136
C         1.96046205026957    1.05713819149050    5.74345481501068
C         1.03045546426949    1.66996819610634    4.91079622734484
H         2.04410530442743    1.29342148275220    3.07876236901317
H         1.05116685033149    2.41443772894349    8.70026909083222
H        -0.59133469400136    3.52236759210663    7.23077054848825
H         2.69532753499713    0.84529185725740    7.73825339001152
H        -0.59923640547560    3.05800061757190    4.81903021542890
H         2.68860662232104    0.38111077257138    5.31811031786562
C        -0.06499554904680   -2.60709889046085   -2.65622296808397
C        -0.92536426329438   -2.96434067989342   -6.83715257586622
C        -1.70199657601339   -3.64228876448430   -5.91443928847318
C         0.13222045500174   -2.18192585820684   -6.40286160313735
C        -1.42579961594188   -3.53401522681615   -4.56197597246959
H        -0.56539339208468   -3.38527014321454   -2.07493794772060
C         0.40846771955237   -2.07695686191606   -5.05245343801171
C        -0.36999359016936   -2.75062316408811   -4.11801197535872
H         1.01105593797888   -2.69414531591872   -2.49399387231326
H        -1.14115451100301   -3.04764314264598   -7.89187219518087
H        -2.52511544782719   -4.25779386279533   -6.24673712251231
H         0.74393549667109   -1.65388859292074   -7.11910052454940
H        -2.03234145051874   -4.07332361319354   -3.84731047639827
H         1.23694306243533   -1.47176863429374   -4.71400149985905
