86
 energy: -123.576699193226 gnorm: 0.000171824836 xtb: 6.4.0 (d4b70c2)
C         0.04720779923806    0.98690784450253    1.25109758199687
C         1.02990520706572    1.59351978642795    2.02863244589427
C         0.83516254514920    2.86326205799734    2.54721121951491
C        -0.37805146349977    3.49910034264357    2.27976167989005
N        -1.33471293439337    2.90566670788648    1.58297025087952
C        -1.13803187407950    1.69338481531404    1.09188780966252
H         1.95546729378628    1.08032107276676    2.25431058944829
H         1.60361188549707    3.32605834105641    3.14708606911972
O        -0.71224853915650    4.74257383485532    2.69887849416313
C         0.21716854198125    5.46796139230286    3.46574294477558
H        -0.26160234280901    6.42196417681005    3.67993659729907
H         0.44723866787664    4.96056876197858    4.40843716020984
H         1.14568423755677    5.64681706191052    2.91301264681079
H        -1.98784060129144    1.28516392924653    0.56309864546279
C        -0.08042741006051   -1.48085961885368    1.95943296202626
H        -0.05070686792592   -0.77282271329604    2.79702008384934
C         0.91695901808840   -2.59195622434112    2.29092523668580
H         0.85480476458817   -3.42436020535293    1.59297272705237
H         1.93824175163526   -2.20510939026018    2.26265356232241
C         0.63156502859264   -3.11025634113427    3.70312554495026
H         1.33269188653596   -3.90263814068929    3.95389559072054
H        -0.37927102054131   -3.50760792329209    3.76240541538095
H         0.73199046785672   -2.31480802980539    4.43893593859287
C        -1.47770961925536   -1.91376554129694    1.75508691943580
C        -1.82795800069660   -3.07872879602211    1.05636421736748
C        -3.13663312366785   -3.51540666500800    1.02082464563533
C        -4.13430764265699   -2.81051054884379    1.67710666671308
C        -3.81144104463039   -1.64677932636765    2.35859931245871
C        -2.50712147427607   -1.19957880734809    2.39002866703221
H        -1.07032259952088   -3.64731078823255    0.53945463756732
H        -3.38161083389630   -4.41990779375704    0.48260126598939
H        -5.15502245198399   -3.16304512811733    1.65567920505464
H        -4.58079831234980   -1.09049817060689    2.87442518502194
H        -2.26367461229191   -0.29703286691155    2.93352619955220
Br        1.01224563825815   -2.37942334450116   -1.01120753558232
Ni        0.30643028298125   -0.54691879895396    0.17556386870830
C         1.05729317966540    1.04979518265832   -2.10902116050086
C        -0.22213981148048    0.47419372304747   -2.49152474580893
C        -2.12707440909077   -0.61737051531258   -2.39901649988431
C         2.91898540210393    1.38806138509093   -0.96687476051370
N         1.60051613001834    0.78783363692616   -0.98691936113018
N        -1.01311969926729   -0.06454449078180   -1.64848115848768
O        -0.53133454565338    0.41189289796089   -3.78941895344384
O         1.73426367334157    1.81372529443372   -2.96626207833391
C        -1.68923121487780   -0.41426556738681   -3.87218213653187
C         2.98930237710643    2.09263222790893   -2.34645754719990
H        -2.21601577761225   -1.67919497620509   -2.14603742272883
H         2.96710535190178    2.10558491320705   -0.13880797616514
H        -1.40499889144026   -1.35208886252458   -4.35902489970385
H         3.10638854484360    3.17594468101437   -2.27165663187507
H        -2.44052988845032    0.09564297791800   -4.47766761045834
H         3.77569918947127    1.68521001557574   -2.98696202303556
C        -3.46939706881517    0.07605774893235   -2.09333055632596
C        -5.21217584513338    1.80616085443868   -0.47266689375167
C        -5.35953710209300    0.28872098155148   -0.44363295730405
C        -4.69667176248610    2.25473199612798   -1.83582934662743
C        -4.02912401655474   -0.38913761230175   -0.75176886798310
C        -3.35110108699044    1.60135539521741   -2.13514563565813
H        -6.17484578521443    2.27797755281702   -0.26567604925985
H        -4.50963980025427    2.12159900585322    0.30141003086158
H        -5.71220590910269   -0.03691919132656    0.53640282863807
H        -5.41843800735484    1.97583274355564   -2.60824753381128
H        -6.10216069829786   -0.01687796657819   -1.18548331543982
H        -4.58655746400346    3.34055537771500   -1.85520711120180
H        -4.16305221401678   -1.47304650332297   -0.77141096334989
H        -2.62255139782917    1.93293126872520   -1.39320179049708
H        -3.31214064234297   -0.16763134613893    0.03811374699311
H        -2.99600000127556    1.92629876231946   -3.11699894206078
H        -4.16579866885966   -0.24214548870519   -2.88029092033666
C         3.98438302018701    0.29827851038356   -0.75581279902730
C         6.20587598418391   -1.02739745063824    0.64063597779024
C         6.40792433007052   -0.30194041884088   -0.68637267386937
C         4.77027044268715   -1.52915899874994    0.76571181650963
C         5.40903041945938    0.84393544522507   -0.84168617417246
C         3.79691212546837   -0.36832796780044    0.60661504847053
H         6.90167453911278   -1.86510629211215    0.71256374554935
H         6.42269564852157   -0.34142091568059    1.46358586507448
H         7.42616207107252    0.08808207215545   -0.74642074958142
H         4.56693488788545   -2.27632528178638   -0.00325240887732
H         6.27047242368070   -1.00887506758233   -1.50720750253084
H         4.62723037460602   -2.00428501175463    1.73831003642030
H         5.58105537741197    1.34830648010071   -1.79466474649296
H         3.97836798373490    0.36913640951325    1.39357290878039
H         5.56354787258757    1.57738726534869   -0.04599293107837
H         2.76184783151896   -0.72292035275362    0.70061162783530
H         3.84282928015160   -0.46039549014756   -1.53424924954571
