86
 energy: -123.582493158009 gnorm: 0.000488265461 xtb: 6.4.0 (d4b70c2)
C        -0.04204996365766    0.87364971313554    1.21815820606834
C        -1.17350505488873    1.55851569031708    1.65277680379518
C        -1.26231915937067    2.02583064716738    2.95430653500827
C        -0.18615953634973    1.78649324033454    3.80849437539194
N         0.89295410133218    1.13743640919375    3.40013537839868
C         0.96863689485522    0.69520264234914    2.15624405537721
H        -2.00365832883866    1.75267028598028    0.98669552446047
H        -2.14511354495104    2.55570643542016    3.27673515279308
O        -0.12360832198516    2.16990805959736    5.10606562412551
C        -1.20655714769531    2.88580526358095    5.64826997668430
H        -0.93317298941768    3.09129718727397    6.68181613123851
H        -1.36834147013358    3.83227416224208    5.12228347808255
H        -2.13004384321085    2.29739449759647    5.62999496885820
H         1.89142978840318    0.17661972666341    1.93167758038005
C         0.54627182795075    1.66399138873770   -1.29995495120789
H         1.23059649556079    2.15553970449714   -0.59284996522476
C         1.30659378085565    1.43519556622199   -2.60539288090725
H         0.62931465663500    1.17853002179496   -3.41857025003824
H         2.02162783102549    0.61716241449658   -2.49012157248195
C         2.06482360599309    2.71056231200335   -2.98067497684130
H         2.59946996518701    2.56381271626014   -3.91642391575342
H         1.36862350022817    3.53709230246452   -3.10535854442930
H         2.78358621925151    2.97992133992926   -2.20933639606862
C        -0.68254390717920    2.47535589369998   -1.43124580750034
C        -1.65591279629769    2.24157137217775   -2.41251303317848
C        -2.76839161858568    3.05155648560878   -2.51672286019569
C        -2.94508654115052    4.12096213206793   -1.65243283381989
C        -1.98856560363940    4.37669063887332   -0.68247097846685
C        -0.87676312074509    3.56652032962457   -0.57143079881416
H        -1.55357641589051    1.40418190062551   -3.08551069353886
H        -3.50595659857083    2.84707474582750   -3.27915001721311
H        -3.81925985203316    4.75010596976692   -1.73398192156008
H        -2.10950646999145    5.21527335765960   -0.01142505469058
H        -0.13179187887210    3.78309589177193    0.18173170390325
Br       -0.58896699131171   -1.18623209603873   -2.38612035461085
Ni        0.00239545541716   -0.08239471693527   -0.44237838386841
C        -0.03696864202495   -2.57251952774714    0.83821119089959
C         1.32292792703538   -2.47107798141886    0.33744979681687
C         3.14685211275639   -1.67110443812771   -0.61409218410080
C        -2.15181555049207   -2.05016504970146    1.22408888693816
N        -0.87551641156343   -1.62429584125405    0.69033096754879
N         1.79220207588331   -1.39430844483527   -0.16474442128291
O         2.09958978961826   -3.55419995658068    0.35182591262948
O        -0.45878663000051   -3.68802078033785    1.43527922604218
C         3.32358604444934   -3.17431497315732   -0.26983537742843
C        -1.85418135119989   -3.50270972318720    1.67840955702501
H         3.18768752949104   -1.49821272511006   -1.69600409055269
H        -2.40094916675413   -1.40171748668953    2.07469002275141
H         3.47319232332644   -3.80151214265984   -1.15166301216827
H        -2.04685760499668   -3.67200894400963    2.73926890774975
H         4.13052673174666   -3.35278107464988    0.44511419442826
H        -2.39724880813826   -4.24420120863236    1.08546335217395
C         4.19805556681438   -0.77845760490275    0.06819775449373
C         6.37871817886362    1.21020899667721    0.07172235170844
C         6.64437584506259   -0.27229542055948    0.31140620709105
C         4.96364512906538    1.57076287356366    0.51190440250161
C         5.60866676196894   -1.13307871511031   -0.40939602478697
C         3.94643550160723    0.70079423685091   -0.21850440631356
H         7.10738154711634    1.81123127984813    0.61883200564312
H         6.49385955025345    1.43067563073109   -0.99207990378647
H         7.64459420084678   -0.53418740531742   -0.03936900501143
H         4.86535640152260    1.42253422935829    1.58952859007461
H         6.60168699820449   -0.47879632739603    1.38330029733428
H         4.76517942275761    2.62355685585183    0.30196619804402
H         5.83052742360625   -2.18733493951988   -0.23364696713817
H         4.03440546990940    0.87255984346535   -1.29309755020004
H         5.67443361115243   -0.95649200118921   -1.48567561956720
H         2.93601330179411    0.96647729371459    0.08761917431605
H         4.13400000758637   -0.94690954371997    1.15046715230327
C        -3.25350431050999   -1.91879105934736    0.15906228740169
C        -5.80096365576244   -0.91444843014438   -0.91656369889268
C        -5.62719441509789   -2.36652377209090   -0.48154366510672
C        -4.46287282626593   -0.32244052292006   -1.34779290356109
C        -4.59141508958437   -2.48237408876818    0.63570570034162
C        -3.44635136044797   -0.45029615222693   -0.22130004222146
H        -6.51686976082896   -0.85886408475267   -1.73850243747719
H        -6.20283211391473   -0.33273398725696   -0.08296810844885
H        -6.58239246662537   -2.77057117147180   -0.13944642761046
H        -4.08845274037666   -0.84919110223654   -2.22731822527976
H        -5.29767252358867   -2.96056057736794   -1.33642131176938
H        -4.58444171278569    0.72953993161030   -1.61311880418459
H        -4.49278573253317   -3.52881518800917    0.93178839036526
H        -3.79398538505146    0.10473800235948    0.65455737312033
H        -4.92933109273049   -1.92027946967761    1.51033057543077
H        -2.48946245944335   -0.01607178276855   -0.53833475851322
H        -2.92951760965030   -2.46904516116511   -0.73159883392619
