118
 energy: -160.461368947095 gnorm: 0.000336232646 xtb: 6.4.0 (d4b70c2)
C        -0.25023230351429    1.03157668648820    0.98032691293834
C        -1.56427683903596    1.46132370882112    1.16140077198910
C        -2.01999611789217    1.81406512135319    2.42058378151602
C        -1.12973912565854    1.73274005546875    3.49096158421556
N         0.12654895325122    1.34708229140315    3.32431690869662
C         0.55050739743279    1.01915112100371    2.11573987503275
H        -2.24943047462057    1.54431768031214    0.32859870498711
H        -3.03801447763947    2.14891171958932    2.54584475064920
O        -1.43071737078177    2.03473466979413    4.77877870712719
C        -2.71919269635865    2.51504828801271    5.07158526422981
H        -2.72296994924308    2.71017708929461    6.14278562446449
H        -2.93571123235745    3.44452188477752    4.53472099417337
H        -3.49108012382629    1.77365926602280    4.83785902946255
H         1.59785292251933    0.75132150664635    2.07879480310202
C         0.67208109117163    1.89014276139067   -0.82399289105717
H         1.26961185910565    2.40090659215684   -0.06099337209385
C         1.61345480379440    1.68235840233812   -2.03096984592157
H         1.05060591400088    1.47157295429726   -2.93953890722828
H         2.30899916020720    0.85769536598521   -1.85753791167127
C         2.41888308156342    2.96332349844429   -2.25825432215956
H         3.06866552486151    2.84394064436553   -3.12263955241352
H         1.74963951509012    3.80110082234401   -2.44284425314749
H         3.03515823621265    3.19997759821579   -1.39307269650383
C        -0.48797864709039    2.75337958218790   -1.17138794479577
C        -1.34314228886208    2.46951084407593   -2.23801779450366
C        -2.41609817820613    3.29148210868374   -2.52518196437070
C        -2.66253025803327    4.41665933320669   -1.75618943038444
C        -1.82323941259510    4.71361091988974   -0.69435968525151
C        -0.75407649865429    3.88983970327619   -0.40275698143541
H        -1.18293175665658    1.59034575768354   -2.84466408355063
H        -3.06681834550009    3.04886553746410   -3.35275081472301
H        -3.50332345123821    5.05671252380950   -1.98049839326837
H        -2.00444716755165    5.59139802565827   -0.09030317886159
H        -0.10662936443804    4.12796069665358    0.43040632696168
Br       -0.05077184002837   -1.07927429357347   -2.57774580301024
Ni        0.12767651145449   -0.07005583776631   -0.50731295409482
C        -0.10802046400651   -2.53402070787624    0.73940700648981
C         1.31008465670923   -2.36754022906355    0.45899227170624
N        -0.65007113426499   -3.66337041782804    1.30015449617311
N         2.21072236749407   -3.39460805916908    0.56852362749966
C        -2.25457016594941   -1.97537081786346    0.95834974060403
C         3.19405164976123   -1.46572972367708   -0.31621384842219
N        -0.93077345241409   -1.56808027858845    0.51712651131873
N         1.77615650014657   -1.26109005094569   -0.02178241990970
C        -2.00525179781140   -3.30820437845772    1.70316354126801
C         3.38116863637849   -2.99503486058827   -0.19727472301084
H        -2.62041902827600   -1.20562691051436    1.64789283289842
H         3.38087803514185   -1.13285489184352   -1.34173901850220
H        -2.71630899097982   -4.08838240063779    1.43030738942584
H        -2.03785814959345   -3.16863700361176    2.79052583688942
H         4.30406899872314   -3.27618836094007    0.30954936604308
H         3.35315442436077   -3.47839645573381   -1.18079666185230
C         2.94358811808197   -5.47652210712661    1.54637150435704
C         1.87171194608783   -4.66876294667153    4.01665512276633
C         1.78423633851857   -3.85452582897963    2.90007441360508
C         2.50391328801567   -5.90258687469565    3.87095764425499
C         3.03812887565562   -6.29313114716874    2.65700749294461
H         1.33225126994679   -2.87848616320448    2.96614420623393
H         3.35456392751542   -5.78119514592599    0.59677189210825
H         2.60259645226575   -6.56452587850273    4.71792163539307
H         3.54153085377558   -7.24511976311315    2.57325638111595
C         1.36207038597699   -4.22777805481809    5.38041669314598
C         0.36543225656901   -5.26105598457038    5.92203336052290
C         2.56187471044346   -4.11929447918766    6.33253834734481
C         0.65703989039268   -2.86891271259615    5.33843262554650
H         0.01990000478309   -4.96249729050432    6.90947061586997
H         2.23245850136816   -3.78180296020146    7.31267945830021
H         0.28284771803543   -2.62452715180862    6.33031268222653
H         0.81567428160225   -6.24631643679796    6.00689456178507
H         3.06044975096929   -5.07774901366646    6.45008168252622
H         1.33643017859184   -2.07545057589588    5.03712061225108
H        -0.49955455125505   -5.33047147265101    5.26555564867174
H         3.28408995181299   -3.40313311103840    5.94639963406198
H        -0.19041743818558   -2.88657358598677    4.65628858241188
C         0.15637437641180   -5.19544368089785   -0.40235485415941
C        -0.31912174134606   -7.33819698997110    1.34836944303696
C        -0.59119327878954   -6.03365870243329    1.73185221549402
C         0.22041655393836   -7.54471574404910    0.08041623655672
C         0.44981843033671   -6.49025324972636   -0.78228559887323
H        -0.99521983963568   -5.81144234721666    2.70527017306570
H         0.29704715832388   -4.37678716630147   -1.09176991451869
H         0.45325921897235   -8.54433242585512   -0.25205742258788
H         0.84229757233510   -6.67825770440209   -1.77054336645018
C        -0.59230730222495   -8.53579049774860    2.24443210929407
C         0.72420458421672   -9.28111268379365    2.50084407147226
C        -1.59022986487785   -9.46668562954407    1.54078238815911
C        -1.18147997300387   -8.13759807431496    3.59913477776443
H         0.54801652241728  -10.14069897557142    3.14408542139907
H        -1.81367830017721  -10.32241513678172    2.17429113334165
H        -1.35613438344587   -9.03066858210940    4.19567592532810
H         1.16787932393364   -9.63481554834804    1.57461627239523
H        -1.19364564721058   -9.83513965544529    0.59905899023374
H        -2.13321658571894   -7.62488052763593    3.47897212306611
H         1.43457713880382   -8.61899690013090    2.99001034332670
H        -2.51871914904250   -8.93788021259185    1.33536677357224
H        -0.49384678692026   -7.49694975134213    4.14449204534344
C         2.29643200720532   -4.25448588570620    1.66736193251722
C        -0.34266687712589   -4.96694736247613    0.87424304912178
C        -3.27968690064152   -2.10573519447649   -0.19066556373050
C        -3.51241088490295   -0.75064237630769   -0.85121218884078
C        -2.86455957326920   -3.14032553894196   -1.23379721743565
H        -4.21646299529281   -2.43543506749416    0.27857185565001
H        -4.17011748214012   -0.85580892274682   -1.71004266184595
H        -3.65302573699471   -3.24467819511821   -1.97510045127044
H        -3.96381152522994   -0.05078570790794   -0.15056138854445
H        -1.96431464667465   -2.82397757746126   -1.75140233262537
H        -2.56507727623044   -0.33801971583750   -1.19704688991347
H        -2.68858383846716   -4.11972671692840   -0.79295028734439
C         4.15643252369075   -0.70290043965902    0.62259702723033
C         4.09381820106148    0.80271487412339    0.38996698523589
C         3.91522833607503   -1.04266312150874    2.09257488407054
H         5.16416270667984   -1.04485075890622    0.35304119783214
H         4.75511420131040    1.31754041268897    1.08341682265378
H         4.59006357083820   -0.46444699980560    2.71963034932210
H         4.40630881404700    1.04463384765238   -0.62318910392876
H         4.09047254955719   -2.09745341174525    2.29621194258719
H         3.08236424391770    1.16567895008368    0.53882829586020
H         2.89530670806739   -0.80431530308236    2.38337245186908
