118
 energy: -160.459159360388 gnorm: 0.000635682445 xtb: 6.4.0 (d4b70c2)
C         0.13594423747444    0.81683621539025    1.26939217036638
C         1.30659700440556    1.36351266645446    1.79518545060243
C         1.43207389391021    2.73352224276084    1.94314595694972
C         0.35201169312850    3.53668331671757    1.57183303072170
N        -0.79492789585534    3.01768418620228    1.16179344059107
C        -0.90957539285131    1.70409853152060    1.04131973457349
H         2.12436132671670    0.72653274509111    2.10667455838470
H         2.34019616752072    3.15087763893557    2.35059916369600
O         0.34007283717757    4.89276022777203    1.61465571491481
C         1.49482468733536    5.56134497916163    2.05413139321314
H         1.26300053356259    6.62306947027306    1.98609935026649
H         1.73696382745299    5.31346032826017    3.09303799771059
H         2.35821371906518    5.33861613576927    1.41759086104512
H        -1.90084149008375    1.36896158812672    0.76823743879681
C        -0.29082850223054   -1.10422267344034    2.24922820089369
H        -0.24962175886399   -0.38374275938996    3.07273100776072
C         0.75442108563872   -2.17492098805628    2.58488337136704
H         0.74476980206557   -3.01466995489593    1.88999090223796
H         1.75290619988236   -1.73085639037372    2.57310407361076
C         0.49114309359457   -2.71170585554171    3.99486965710310
H         1.23542539085280   -3.46324366146112    4.24819163326944
H        -0.49521990577856   -3.16662999510555    4.05190530355089
H         0.54299079878533   -1.91186878610060    4.73154091609481
C        -1.70251441621318   -1.55898712152189    2.15425496417782
C        -2.08826631668662   -2.82117354283456    1.68760666733248
C        -3.40988993820079   -3.22008728030821    1.73781185426511
C        -4.38219502540636   -2.38097880221979    2.25635045929780
C        -4.01868810881203   -1.13113822330509    2.73277860646830
C        -2.70064912161898   -0.72706651034505    2.68348899356427
H        -1.35654118704501   -3.50589546752496    1.28915441893356
H        -3.68059163491862   -4.20020456224795    1.37296668400709
H        -5.41341521249167   -2.69956507449835    2.29632933540847
H        -4.76557261756369   -0.47314497446990    3.15317530404636
H        -2.42564802532635    0.24440357944624    3.07173995744893
Br        0.28426457898102   -2.77903265315711   -0.87304523289427
Ni        0.06581942607901   -0.77080535317193    0.24668658063903
C         1.11818915697852    0.68120257048947   -2.12834728566638
C        -0.28473700306099    0.48263658307006   -2.47155957866151
N         2.01296436723463    1.29793065845877   -2.95932179845090
N        -0.78419663230892    0.81307213678683   -3.71051415124375
C         2.99967318371724    0.63858477714494   -0.93623642406690
C        -2.33095349889199   -0.37727771996004   -2.41223776745129
N         1.58500358455101    0.30314728297059   -0.98910084101900
N        -1.09099241912228   -0.13672202494828   -1.68496670862837
C         3.22562937689834    1.51843395574878   -2.18496851818934
C        -2.02078546130541    0.06410576049162   -3.86334195531829
H         3.17826444392770    1.21422228331012   -0.02253978965723
H        -2.52609400469520   -1.45342548334738   -2.36398489844369
H         4.11324938000370    1.23248144761125   -2.75108676982882
H         3.30662044955258    2.57987280904206   -1.91987780702376
H        -2.80777479452107    0.68129554133412   -4.29744327019766
H        -1.84657086806356   -0.79889956416280   -4.51585448079819
C        -0.84894949740783    2.24977326056556   -5.64901726022230
C        -0.03062247397905    4.41078205348605   -4.04865769617738
C        -0.21862616336478    3.15136211453532   -3.50519344134093
C        -0.26631602177957    4.57021585378028   -5.41341822768020
C        -0.68091888098934    3.50781695517601   -6.19504741423255
H        -0.09502821755872    2.98659385982699   -2.44704656345615
H        -1.16065662779116    1.41693174301857   -6.25964740047555
H        -0.14850420936821    5.53866256075855   -5.87545578888413
H        -0.88219876079980    3.66078750059905   -7.24543664993664
C         0.35770015609626    5.60789928377272   -3.19458081278109
C         1.61143603466542    6.27558662573318   -3.77642085004980
C        -0.80977589595662    6.60463938627231   -3.20112322389412
C         0.65780296550015    5.22737610224639   -1.74193940155964
H         1.88360671390558    7.14187094284430   -3.17702195184717
H        -0.56834675869537    7.46906370553697   -2.58659705123426
H         0.97480512429455    6.11321463268916   -1.19546558958466
H         1.45116220289113    6.61131977634134   -4.79719873085681
H        -1.02780040586942    6.94929180953035   -4.20868934762075
H        -0.22054730265054    4.83078002779257   -1.23899275109225
H         2.44817824730577    5.57969750513689   -3.76973882913655
H        -1.70428867638426    6.13507664021290   -2.79804193149157
H         1.45925603857564    4.49221550447368   -1.68676638419165
C         1.64551535618120   -0.04509768067457   -4.94923634038331
C         2.75014207747817    2.02027369827351   -6.50012647309043
C         2.63639857661222    2.14666152295925   -5.12398258142094
C         2.28447214475719    0.84458564501722   -7.08494724956330
C         1.74234357095990   -0.17156842746717   -6.32127184022806
H         2.96902007355532    3.03665057266048   -4.61694127839364
H         1.25419392715954   -0.85098789708735   -4.34692380161442
H         2.35525142499628    0.70665251888526   -8.15262566830009
H         1.40848128988410   -1.08191783832505   -6.79673872722078
C         3.37504351375237    3.09481522625786   -7.37550807016869
C         2.37552975367494    3.51324867650649   -8.46171714735483
C         4.64215094038564    2.52152767019610   -8.02616754800992
C         3.75948372300402    4.34736260337159   -6.58504520278308
H         2.80660414713447    4.29504718454207   -9.08353856735713
H         5.11601005673885    3.27499874610159   -8.65162083437474
H         4.17749824277303    5.08980366745613   -7.26176096519051
H         2.10947686508586    2.67891305532846   -9.10401099576385
H         4.41169225499354    1.65895216281976   -8.64526284573059
H         4.51123319134725    4.12352806355678   -5.83149617873474
H         1.46794221609466    3.89534315575221   -8.00096576142730
H         5.35175080782782    2.21162345408141   -7.26164368460159
H         2.88556162962290    4.77999892477329   -6.10486351197121
C        -0.60117087166708    2.06847100328793   -4.29493130954160
C         2.07667174615181    1.13336498343313   -4.35323884227449
C         3.90672555305002   -0.61036153080660   -0.89849151357967
C         3.66905724280879   -1.37240796451043    0.39970517793159
C         3.67946087844245   -1.52658068220145   -2.09769845652674
H         4.94164379152353   -0.24408386202839   -0.92011803946016
H         4.21623134517724   -2.31100492492249    0.40079339667334
H         4.37887905977644   -2.35792997868311   -2.06018609920930
H         3.98471848217952   -0.78379208030159    1.25946973743304
H         2.67406097723050   -1.93684770013321   -2.07505369014409
H         2.60443608789750   -1.59191309498238    0.48869970229297
H         3.82650885402015   -1.00593087421997   -3.04211847711324
C        -3.55272351014198    0.35644054573903   -1.82714546894140
C        -3.91222444214908   -0.25500127897521   -0.47826950068404
C        -3.32278162632110    1.86444855235798   -1.73570977199569
H        -4.38333933419416    0.17894236692207   -2.52234731987288
H        -4.64702802721919    0.35116122651281    0.04547467247478
H        -4.18531779824783    2.34308415929295   -1.27793281412044
H        -4.31962010376398   -1.25515736177540   -0.60882801188072
H        -3.18052039849908    2.30405982229654   -2.72185268933675
H        -3.02187882444271   -0.33996282160416    0.13751957810149
H        -2.44807547079698    2.09265471016275   -1.13394556462742
