98
 energy: -140.342984358400 gnorm: 0.000789642825 xtb: 6.4.0 (d4b70c2)
C        -0.19255098480676    0.80791439650725    1.09884054925169
O        -1.34721813825570    1.08226816181818    0.95018009957737
C         0.78032778086744    1.63332370213421    1.90989033702228
H         0.51855667783695    1.49399803640904    2.96315821440029
H         1.80923295867948    1.30517578335877    1.77088029361267
C         0.62640620198807    3.11923544535075    1.54144122901601
H        -0.40563168864927    3.42222862770647    1.73154586369011
H         0.82700849399602    3.24862240427122    0.47578051753356
C         1.57629006305857    3.94701529095214    2.35767656261028
C         2.78338774610616    4.38323714706332    1.82784731613741
C         3.67438763682938    5.10797075642753    2.59988894852225
C         3.36844014197752    5.40558421748501    3.91638713372664
C         2.16485250591120    4.98044685308156    4.45368554542428
C         1.27737559523315    4.25538596651691    3.67994723584446
H         3.02680905427830    4.16440337438867    0.79621834580130
H         4.60869121833418    5.44123269226739    2.17200715703022
H         4.06287254636512    5.97065025180530    4.52010844271785
H         1.91742538680615    5.21540840727718    5.47852821011517
H         0.33738964509747    3.92959760470206    4.10247029096019
C         0.05010547634647   -1.60437266278924    1.89203094601740
H         0.14959684928483   -0.90327482207974    2.73124725159953
C         1.04620870002583   -2.73536646989995    2.12510099359919
H         1.00195252471356   -3.51132474019003    1.36898058343630
H         2.06547334909967   -2.36159908322982    2.17648174711610
H         0.80984684246384   -3.18979014638946    3.09205917910649
C        -1.35309659645548   -2.01358452326097    1.74681519693425
C        -1.75115368337397   -3.13198394047478    0.99485507234002
C        -3.06761660355096   -3.53005570407917    0.95693496607998
C        -4.05256142531100   -2.84673694340826    1.67329211060375
C        -3.66469002462045   -1.73937384962809    2.42984134143120
C        -2.35335104027998   -1.32563785688949    2.45614112298789
H        -1.01841613985017   -3.68638137989847    0.42874880390654
H        -3.34005158254673   -4.40338322451020    0.38192459190839
C        -5.45652021362343   -3.26648691250331    1.62310409018247
C        -6.25540453632030   -3.22458378657463    2.76512569026535
C        -7.58065820228054   -3.61284097522559    2.71392914557493
C        -8.13569302644770   -4.04324456565986    1.52023437948012
C        -7.35326661120560   -4.08758594466062    0.37826215997279
C        -6.02610345730344   -3.70679335652114    0.42893620658640
H        -5.82526473994231   -2.90725605027200    3.70406264790464
H        -8.18419121569420   -3.58174065649699    3.60971246991881
H        -9.17240385186242   -4.34343555369084    1.48046806365213
H        -7.78117463600776   -4.41945370785500   -0.55676569371328
H        -5.42795515143968   -3.72920858888266   -0.47017852532592
H        -4.40744637779009   -1.18660441984300    2.98714129282375
H        -2.08210115614632   -0.46689321599332    3.05481164858421
Br        0.98729679750293   -2.34083642245094   -1.20769697521146
Ni        0.24858915713342   -0.56981131422925    0.04497833999285
C         1.12346624288695    1.15121316123483   -2.14735279032321
C        -0.18493005646576    0.68129987648977   -2.56818205957563
C        -2.11579677807878   -0.36961231754645   -2.55989564124924
C         2.98136697116597    1.35888686560053   -0.96870631920120
N         1.61998007421072    0.85529663418966   -1.00910043693011
N        -0.95740252254586    0.03281284207366   -1.78970402839627
O        -0.55551743798066    0.84828595915968   -3.84212469178049
O         1.87068537902101    1.86553486793109   -2.98903258493892
C        -1.77539479919800    0.12634374594506   -3.99028075049392
C         3.13368563678425    2.04265032228338   -2.35179889546755
H        -2.18426931875009   -1.46267800604997   -2.51970946279169
H         3.06956106786161    2.08120190660192   -0.14851732904269
H        -1.60525092737968   -0.69402559499262   -4.69299365315566
H         3.34262754136411    3.11311372739898   -2.28638254798491
H        -2.53215597730123    0.80066145643038   -4.39790074073500
H         3.89306433134897    1.56280442779722   -2.97446012936282
C        -3.42976436319845    0.22326079578564   -2.01994770446874
C        -5.08869401403444    1.52245767050586    0.02703934791233
C        -5.21754415067425    0.03326719988276   -0.27269754297681
C        -4.63412079417865    2.27263532789942   -1.22085838908157
C        -3.88673547459536   -0.51999362783486   -0.76824982343513
C        -3.30171764995322    1.71548259633292   -1.71169180743222
H        -6.04408647810048    1.92053627159142    0.37599559402932
H        -4.35009338585223    1.66296852833355    0.81852581962712
H        -5.52918935620407   -0.50643828427058    0.62290033763209
H        -5.38783065694025    2.16609342397073   -2.00591181560143
H        -5.98449791566084   -0.12131911761756   -1.03679585270828
H        -4.52861216568331    3.33748790403127   -1.00124192741105
H        -3.98451386100693   -1.58558488721092   -0.98548039245826
H        -2.55247273506542    1.84671789899033   -0.92950347938183
H        -3.12901051515757   -0.40282024769563    0.00595702172664
H        -2.97240837268242    2.26632916217495   -2.59749418993259
H        -4.18267799841158    0.08146339781648   -2.80653653386639
C         3.97834051154409    0.21539602374978   -0.72055029886288
C         6.09905246189388   -1.17543407633892    0.76574441013406
C         6.37396883038465   -0.48015117921570   -0.56368881977704
C         4.64236920154624   -1.62206574958537    0.84540384966359
C         5.42683077666708    0.70121914180332   -0.76390287100572
C         3.71456785782353   -0.43100894744069    0.63870877240095
H         6.75943580694802   -2.03728753113191    0.87571498828073
H         6.31159119941544   -0.48435867837632    1.58565304869287
H         7.40828543428200   -0.13141882072920   -0.59589782382115
H         4.43866354539853   -2.37111106403046    0.07849696366968
H         6.23380926335189   -1.19307239914570   -1.37865857062466
H         4.45174844414475   -2.07888764948299    1.81865431264158
H         5.65022684899066    1.18829826439342   -1.71518825766343
H         3.88510412372449    0.30555195627390    1.43024401525568
H         5.58403040870760    1.43603434721441    0.03051682152675
H         2.66532186227989   -0.75448200100730    0.68634864563376
H         3.82492190720488   -0.54134595612637   -1.49784407763218
