   98
FINAL HEAT OF FORMATION =  -140.342437
 C    -0.180848     0.780382     1.217854
 O    -1.320231     1.109690     1.047671
 C     0.846164     1.619418     1.948904
 H     0.633106     1.542067     3.018846
 H     1.859922     1.256625     1.782106
 C     0.706506     3.088920     1.518505
 H    -0.327608     3.400182     1.683461
 H     0.918427     3.175337     0.451098
 C     1.641963     3.952529     2.313609
 C     2.845871     4.391249     1.779366
 C     3.716510     5.159077     2.532974
 C     3.392914     5.497904     3.834982
 C     2.193047     5.068616     4.377343
 C     1.326259     4.300826     3.622041
 H     3.101745     4.142168     0.758299
 H     4.648056     5.495003     2.101350
 H     4.070529     6.098012     4.423518
 H     1.931818     5.335161     5.390902
 H     0.387811     3.973758     4.047162
 C    -0.097151    -1.295691     2.055405
 H    -0.130840    -0.620215     2.917796
 C     1.013868    -2.306170     2.351063
 H     1.172858    -3.033356     1.561731
 H     1.953543    -1.798330     2.557142
 H     0.728422    -2.850807     3.255706
 C    -1.451352    -1.845354     1.859984
 C    -1.720796    -3.030373     1.160398
 C    -3.003895    -3.522743     1.070326
 C    -4.074374    -2.872759     1.686191
 C    -3.810089    -1.705820     2.404026
 C    -2.533804    -1.197453     2.476601
 H    -0.918904    -3.569887     0.681124
 H    -3.180016    -4.443086     0.532656
 C    -5.443603    -3.386486     1.575108
 C    -6.309392    -3.351603     2.667189
 C    -7.603375    -3.823858     2.556521
 C    -8.059032    -4.332472     1.351580
 C    -7.208765    -4.371177     0.258988
 C    -5.912213    -3.906245     0.369538
 H    -5.955510    -2.972220     3.614944
 H    -8.260075    -3.796693     3.414216
 H    -9.071789    -4.697593     1.264932
 H    -7.559615    -4.764301    -0.684301
 H    -5.259642    -3.925053    -0.491016
 H    -4.619493    -1.182221     2.892162
 H    -2.359003    -0.288951     3.036078
Br     0.867356    -2.360731    -1.159307
Ni     0.237778    -0.532942     0.071596
 C     1.139408     1.196491    -2.100361
 C    -0.177735     0.757272    -2.527364
 C    -2.118066    -0.275929    -2.544577
 C     3.015160     1.326186    -0.939526
 N     1.639475     0.859857    -0.974818
 N    -0.962889     0.110142    -1.760698
 O    -0.539474     0.945337    -3.801418
 O     1.893616     1.918312    -2.929303
 C    -1.774569     0.253078    -3.962374
 C     3.161415     2.064908    -2.294113
 H    -2.181783    -1.370120    -2.529908
 H     3.142249     2.007487    -0.090428
 H    -1.626304    -0.549524    -4.689694
 H     3.373984     3.131422    -2.185515
 H    -2.519741     0.954630    -4.345114
 H     3.915562     1.610340    -2.941179
 C    -3.435205     0.297421    -1.994342
 C    -5.109203     1.519653     0.086026
 C    -5.238327     0.044390    -0.275741
 C    -4.639570     2.318349    -1.125599
 C    -3.901989    -0.491681    -0.774911
 C    -3.305035     1.775921    -1.626592
 H    -6.067031     1.906399     0.441015
 H    -4.378008     1.625669     0.889530
 H    -5.564997    -0.530803     0.591636
 H    -5.386389     2.247826    -1.921189
 H    -5.994047    -0.076230    -1.056918
 H    -4.531591     3.372556    -0.861151
 H    -3.996823    -1.549588    -1.029023
 H    -2.561341     1.872504    -0.834015
 H    -3.150557    -0.399024     0.009021
 H    -2.966296     2.359347    -2.487658
 H    -4.182512     0.187447    -2.791228
 C     3.978205     0.140667    -0.763525
 C     6.057303    -1.401647     0.627528
 C     6.347048    -0.647961    -0.666927
 C     4.585970    -1.799094     0.698083
 C     5.442477     0.576033    -0.799241
 C     3.703944    -0.564465     0.563584
 H     6.687338    -2.290790     0.685669
 H     6.301593    -0.762367     1.479953
 H     7.393092    -0.335374    -0.690803
 H     4.348358    -2.497002    -0.106234
 H     6.175595    -1.312564    -1.516130
 H     4.381951    -2.301242     1.645549
 H     5.674882     1.100380    -1.728442
 H     3.909991     0.124294     1.389012
 H     5.633984     1.265176     0.027766
 H     2.644839    -0.850567     0.604593
 H     3.791003    -0.569586    -1.576600
