93
 energy: -147.996856661523 gnorm: 0.000577958478 xtb: 6.4.0 (d4b70c2)
C         0.66281319212950   -0.72784732922752   -1.73460842975485
H         0.11845468213945   -0.00525221693219   -2.34258518077754
C         1.59435025439132   -1.50170143235187   -2.30870885469370
H         2.15789356791926   -2.21630312495425   -1.71675725410415
C         1.99347864819698   -1.42140902411657   -3.70822843707315
C         3.25237486105914   -1.89723818234928   -4.08325188220825
C         3.66609354058162   -1.84293000762571   -5.39929884318083
C         2.82743776049012   -1.32472384867894   -6.37313377333363
C         1.57095362320667   -0.86136584600326   -6.01773675558957
C         1.15619132033492   -0.90715783052244   -4.70119035563740
H         3.91178342682396   -2.29481596128487   -3.32578469866807
H         4.64629561239097   -2.20761032033131   -5.66945837376566
H         3.14882040009491   -1.28569213922110   -7.40329486072905
H         0.90867537029226   -0.46476329327868   -6.77420469743219
H         0.16492098086113   -0.56017075604131   -4.44665519397432
C        -0.86520303055067   -1.67692875717586   -0.49340692088646
H        -1.43795848170676   -1.00804472298193    0.15126551396456
C        -1.73102873437675   -2.02064059863545   -1.69922786784734
H        -2.38636056131637   -2.85380870831267   -1.42101523821466
H        -1.15346953437477   -2.31557513799715   -2.57986139759329
N        -2.62278444183857   -0.94226042226882   -2.07011112455750
H        -2.12830561197830   -0.07785724554163   -2.23780123156307
S        -3.89293826614798   -0.65972677963647   -1.00408582729984
O        -4.21541211811997   -1.88690176547926   -0.34258873597688
O        -3.60674215841125    0.49522698204145   -0.18830956394945
C        -5.17331652259969   -0.23393148353363   -2.17131083868361
C        -6.13179354630342   -1.17482499452517   -2.48963440771306
C        -7.10516479664360   -0.85811036358874   -3.42318406632965
C        -7.10287523120101    0.39028746255239   -4.02593627167460
C        -6.13307381574543    1.32573865456449   -3.69966728465921
C        -5.15881077908741    1.01260965801367   -2.76621128278426
H        -6.10224504387828   -2.13224182378495   -1.99456366258826
H        -7.86362517551322   -1.58197197344712   -3.67941607035388
H        -7.86236356494065    0.63670690897066   -4.75276650753601
H        -6.13430321129362    2.29745353932840   -4.16964359048562
H        -4.40023546724619    1.72779843477589   -2.49088716097275
C        -0.37817587127266   -2.81591844487347    0.31293317805894
C        -0.76439708073738   -2.92741353589330    1.65276612553325
C        -0.39396315706121   -4.02304550749542    2.40836407470231
C         0.37592129565607   -5.03058597471091    1.84862503420282
C         0.74099900960123   -4.94941037155044    0.51443330704321
C         0.35174305595471   -3.86785410958542   -0.25169716221368
H        -1.38939681744450   -2.15874645434452    2.08660958161576
H        -0.71579960249724   -4.10055895732489    3.43814588522376
H         0.67304322939926   -5.88218165237071    2.44298938616180
H         1.32199363735986   -5.74257319696794    0.06694723068070
H         0.61319712584545   -3.82992054084969   -1.29786819562365
Br        3.16705222469059    0.55841881240378    0.28971014757119
Ni        0.85146469916476   -0.33815262031453    0.14411093823225
C         0.30317932938872    0.89317977729846    2.56435007188766
C        -0.12723437196335    1.85378736552312    1.56447091589833
C        -0.40615346174780    2.79383492489544   -0.41084051394799
C         1.19753099065907   -0.93461142555879    3.41770602208347
N         0.72352994796433   -0.26486448633060    2.22603426375255
N        -0.04191207178535    1.59283477148584    0.31546981263599
O        -0.54307965426872    3.06510237846262    1.92671232504715
O         0.34195078501115    1.22079698987450    3.85723240809654
C        -0.82059556851854    3.76942913356760    0.71770374218151
C         0.94058355759122    0.11094182525171    4.53031692624019
H         0.48531603180448    3.14898872589939   -0.94193717114282
H         0.60392611385975   -1.84235837155380    3.56927607492439
H        -1.88863002552591    4.00396843561476    0.69192765053254
H         0.25143793654614   -0.24082064451011    5.30120804801007
H        -0.24566298870275    4.69722246970954    0.71663896391611
H         1.86560189527600    0.45146381866664    5.00313666074974
C         2.67004976522426   -1.34226005917972    3.26669124826828
C         3.86375752760740   -3.70086326207319    6.63899867130812
C         4.28857553640758   -2.38863563149929    6.52811906146604
C         3.06757485690972   -4.25008380883821    5.64774436229917
C         3.91231138226845   -1.62597281975236    5.43569276077044
H         3.28824676772034   -0.44911265307108    3.16180113454237
C         2.69472671611872   -3.48767478392455    4.55628559421556
C         3.11026494306083   -2.16616961572659    4.43981722867884
H         2.75653402633906   -1.92238445604297    2.34388610119538
H         4.15730208183835   -4.29634570064617    7.49077752316920
H         4.91731511307719   -1.95741744678704    7.29324987043257
H         2.74049957813439   -5.27691217788528    5.72469716719156
H         4.25929598462820   -0.60612346696422    5.34925405206186
H         2.08373486031990   -3.92075805661364    3.77695815324801
C        -1.52807555668584    2.51799555081098   -1.42119309495344
C        -3.17966939963736    6.15748152976894   -2.96830788151110
C        -3.90715798370699    5.38794274294600   -2.07716511293356
C        -1.91854244394941    5.74360795641298   -3.36413953812332
C        -3.37316926082924    4.21147445422656   -1.57983613488595
H        -2.30284197764445    1.93698048385441   -0.91644495331503
C        -1.38719807735225    4.56651140320409   -2.86939136771546
C        -2.10833667016146    3.78932110639421   -1.97060165180985
H        -1.10197569159889    1.92767043818924   -2.23607105615622
H        -3.59434198951722    7.07629001609059   -3.35516320810358
H        -4.89230358289896    5.70386898109618   -1.76687432596028
H        -1.34827828249974    6.33908112931187   -4.06151825070603
H        -3.94400805880574    3.61007715829002   -0.88533251028085
H        -0.40546750615192    4.24386230346777   -3.18501844593724
