96
 energy: -141.249560033649 gnorm: 0.000772662255 xtb: 6.4.0 (d4b70c2)
C         0.03119396509991    0.86823010790672    1.23045941284925
C        -1.09335845810195    1.56150636719405    1.67303106073807
C        -1.17237792496508    2.03950987334872    2.96943897461939
C        -0.12057368581864    1.83595408165183    3.85703309661188
C         1.00661054537250    1.14534133356559    3.42053326479756
C         1.07820134186875    0.66528754679789    2.12611168875894
H        -1.92594872369468    1.75396491885248    1.01106943471624
H        -2.05256898447003    2.57354596107264    3.29390106517312
C        -0.15335753191777    2.32086781143209    5.25145921545410
O         0.73211961106835    2.15396815807409    6.05656853563766
O        -1.28977616743650    2.97849124636491    5.54713826138414
C        -1.38424814420368    3.47401469465766    6.87194078922770
H        -2.34671122481197    3.97443456058157    6.94293307759194
H        -1.32411514623804    2.65347552207171    7.59057692981443
H        -0.57129880931732    4.17471691354890    7.07491476018040
H         1.82111597890936    0.98877459297052    4.11267938596195
H         1.96600026138872    0.12319490564075    1.83313871515812
C         0.58383269831857    1.66262587256665   -1.29103522480463
H         1.27002004529150    2.15474523608593   -0.58626785007247
C         1.33421142803969    1.41008595962397   -2.59966793117692
H         0.66137784484946    1.21253606075846   -3.42845966447842
H         2.02598937605939    0.57453374931538   -2.50892306009100
H         1.91779089008195    2.30376784961964   -2.83479890919082
C        -0.64989658180626    2.46883032614201   -1.41827608165117
C        -1.62264663706719    2.24182067441758   -2.40293723038054
C        -2.74706321729249    3.03127543166987   -2.48929464443245
C        -2.95216092699047    4.09601107131941   -1.61040332684785
C        -1.97755241158204    4.34478419287158   -0.64346463096419
C        -0.85912696680763    3.54754374895848   -0.54478912460994
H        -1.51208648330561    1.42020540312763   -3.09370722408583
H        -3.47334174097011    2.83451593790393   -3.26427181595799
C        -4.15687298674381    4.92791704218150   -1.70108599027368
C        -4.08252118835654    6.30947710918478   -1.53103666115732
C        -5.21728438517790    7.09269367984344   -1.62402285536231
C        -6.44752348391462    6.51042749528069   -1.88024483493882
C        -6.53472415847410    5.13835131385593   -2.04676403763423
C        -5.40019520357853    4.35387979978433   -1.96164212781393
H        -3.12320672938461    6.77198330394986   -1.34958849582784
H        -5.14212958342353    8.16320142164319   -1.49837285858406
H        -7.33405197562711    7.12320329903750   -1.95069801956553
H        -7.49204016964632    4.67767557155797   -2.24324800887764
H        -5.47873917216052    3.28257849999303   -2.07772404545872
H        -2.11295553986444    5.15999887457773    0.05265636162999
H        -0.11983771412837    3.76262533690671    0.21401204195276
Br       -0.61634667627218   -1.16273117116478   -2.37395218449702
Ni        0.02907585070405   -0.08155513244374   -0.43708072390994
C        -0.00742466214620   -2.58190206084572    0.81129819720206
C         1.34136020538885   -2.49246428669410    0.27817757131555
C         3.15599850208391   -1.70012471153039   -0.69889694140113
C        -2.10306994110623   -2.03340873684349    1.26202736338487
N        -0.83523626430455   -1.61915589829899    0.69961418298340
N         1.81129535835245   -1.41572701777335   -0.22416510471936
O         2.10745984348989   -3.58254971231288    0.26727627837860
O        -0.42939095977175   -3.69915237221526    1.40453964502125
C         3.32165405175269   -3.20976519272167   -0.37789611436757
C        -1.81551409280615   -3.49720928937434    1.68631318988866
H         3.18492413580237   -1.51276770686708   -1.77853037152298
H        -2.31758623474711   -1.39270110532536    2.12763742977220
H         3.44303564581051   -3.82703218755270   -1.27096054702810
H        -1.98387170896542   -3.68099180038053    2.74879759715758
H         4.14247751909200   -3.40811746490032    0.31566236473035
H        -2.38425002293725   -4.22112231055024    1.09558714950674
C         4.22397599482760   -0.82725883792122   -0.01594529970419
C         6.42355061473681    1.13936268101601    0.02308489358793
C         6.67483674783800   -0.35145233153822    0.22544840594208
C         5.01267467419467    1.50430948217492    0.47287280748967
C         5.62763709917111   -1.18504870459112   -0.51080659838991
C         3.98630431677025    0.65988575822042   -0.27459985157153
H         7.15858417742849    1.71897216235908    0.58447870073772
H         6.54032862174364    1.38522306019698   -1.03481033893468
H         7.67091908563054   -0.61423597124938   -0.13587235562476
H         4.91544872518079    1.33462195925748    1.54768092060298
H         6.63526797899672   -0.58366904950882    1.29233168335865
H         4.82333414463686    2.56272738517073    0.28510781517979
H         5.84029871707089   -2.24524247745402   -0.36172029851500
H         4.07648444943356    0.85340962694273   -1.34523096027053
H         5.68918199039207   -0.98311718019119   -1.58272870090633
H         2.97892563636081    0.93250925401297    0.03399420107339
H         4.17015272245115   -1.01394344342672    1.06425540556411
C        -3.23573115196311   -1.87349432164649    0.23368957615393
C        -5.80451359268312   -0.80741150804926   -0.73128030584879
C        -5.64339402988598   -2.26675265562282   -0.31636002782934
C        -4.47279706676039   -0.24183496330327   -1.21404998041347
C        -4.56603384677987   -2.41389271717822    0.75695573319367
C        -3.41371185676850   -0.39958200673142   -0.13153009057577
H        -6.55384261096832   -0.72912994704682   -1.52111961170180
H        -6.15688589114433   -0.22477309369060    0.12372870887680
H        -6.59191382430218   -2.65440933549082    0.06122719325755
H        -4.14783941356855   -0.76875487646870   -2.11304364503803
H        -5.36166920710978   -2.85957051325680   -1.18908780776810
H        -4.58031108257463    0.81512962418863   -1.46531252834127
H        -4.47754373805226   -3.46471604021045    1.04045115981338
H        -3.71320501264861    0.15701645936759    0.76058951429503
H        -4.85688675699419   -1.85253011794461    1.64868373934199
H        -2.46232469944416    0.01638002057460   -0.48609505870752
H        -2.95378667369825   -2.42565852107105   -0.67015389824074
