96
 energy: -141.244851732409 gnorm: 0.000580164877 xtb: 6.4.0 (d4b70c2)
C        -0.00814955031592    1.03708525367438    1.21635629455369
C         0.96771916272594    1.63401881451776    2.00991980469189
C         0.77228523493534    2.89704786795520    2.53970551051345
C        -0.41666999098533    3.58108238009951    2.30134324160656
C        -1.41210722204070    2.96823626824652    1.54485648752859
C        -1.20971301689477    1.70701855114774    1.01601788063468
H         1.89089374195422    1.11689868068800    2.23060752604581
H         1.53900412961487    3.35527030398431    3.14602349547637
C        -0.67005074994048    4.93326016254462    2.83823193268278
O        -1.69082740270304    5.55770905336586    2.67214522312171
O         0.37119392118152    5.41513946833137    3.54242504084566
C         0.19407461830976    6.70992971013847    4.09210576331656
H        -0.65599532990961    6.71875799429346    4.77783017326666
H         1.11418572470670    6.94513935483023    4.62113878740999
H         0.00987557357619    7.43822947553365    3.29916876877360
H        -2.34201388395503    3.49447529951069    1.38360712800314
H        -2.00846124173002    1.24525803489887    0.45274046476308
C         0.03394611095219   -1.56408803901951    1.93754806549170
H         0.11478881777211   -0.84863513807401    2.76869488890299
C         1.01575784281014   -2.70314613683150    2.21391385618538
H         0.95144794247107   -3.51492247985546    1.49769581288455
H         2.04049969619452   -2.33944744983556    2.23305561697277
H         0.78459830880058   -3.10043421351079    3.20606038671198
C        -1.38065408876827   -1.94683132678433    1.74051032316679
C        -1.77457292723736   -3.10492196939602    1.04791292879224
C        -3.09561198278759   -3.48875060444698    1.00459942119273
C        -4.08774623603131   -2.75034592419435    1.65407733990366
C        -3.70394898004415   -1.59547984131692    2.34079876807122
C        -2.38833309348746   -1.19673585540415    2.37496190878567
H        -1.03525030588627   -3.70650554282695    0.54124512706997
H        -3.36569861436889   -4.39577055764704    0.48310562614464
C        -5.49395125949316   -3.16235360102648    1.60717691696268
C        -6.31549590512692   -3.01800503235475    2.72471133416406
C        -7.64281085792554   -3.39958771596233    2.67893771751655
C        -8.17757856095483   -3.92549054733301    1.51464280506679
C        -7.37257716200646   -4.07311386367234    0.39741505346318
C        -6.04324985612889   -3.69935259629912    0.44323285937603
H        -5.90162858401396   -2.62694036533652    3.64280637697665
H        -8.26334210000841   -3.28868172840236    3.55613259139636
H        -9.21572693108445   -4.22058225489640    1.47875643284835
H        -7.78391306923780   -4.48139263100212   -0.51441057129490
H        -5.42834884736516   -3.80629858146759   -0.43866404648379
H        -4.45367788296352   -0.99684488137531    2.83777038182941
H        -2.11449009840283   -0.30236365770832    2.91799832729974
Br        1.04678482672402   -2.31666284927520   -1.06014569285488
Ni        0.19169264813437   -0.56945683908934    0.18592403529958
C         0.95825945908740    1.09237954882028   -2.07424022255709
C        -0.29486268172873    0.48516883596167   -2.49153743659328
C        -2.15752634499577   -0.68024351465979   -2.45794760817324
C         2.79886134495108    1.44901153327168   -0.90393815954687
N         1.49715189884245    0.81330815503254   -0.95407631682133
N        -1.07901645616666   -0.10209115280965   -1.67454794819812
O        -0.58086030274357    0.44290373928981   -3.79475835794815
O         1.61891347669381    1.90159043133194   -2.90104648364066
C        -1.70385290509493   -0.42503769034301   -3.91771347187278
C         2.85702743508334    2.20305834637060   -2.25774576613581
H        -2.20623080679038   -1.75103326827129   -2.23262570193599
H         2.82239546273863    2.13822717280547   -0.05187803127473
H        -1.37477822630191   -1.33933491982713   -4.42066275516507
H         2.93364761475761    3.28650096239368   -2.14314236462997
H        -2.46435478625830    0.06904858166664   -4.52483688816809
H         3.66287523642018    1.84747483850477   -2.90438590539370
C        -3.53297801536152   -0.05299290592575   -2.15786386451937
C        -5.38334539343319    1.56430851273314   -0.53834645561124
C        -5.44646687679055    0.04091334497777   -0.52474106848961
C        -4.87442508222361    2.05588539984274   -1.88976735557477
C        -4.07434282103233   -0.55232290069123   -0.82130300588839
C        -3.49453066623035    1.47653317165967   -2.18862372328297
H        -6.37240089965608    1.98154240793191   -0.33987804693399
H        -4.71103144227097    1.90713214919722    0.25138571489796
H        -5.79612641372363   -0.31670721050875    0.44545398835435
H        -5.57407673836675    1.75029241817853   -2.67184272239655
H        -6.15963021115969   -0.29953681234569   -1.27972018392987
H        -4.82118368808333    3.14636827648668   -1.89607525206447
H        -4.14092301932368   -1.64128876020404   -0.84395572728813
H        -2.78377948240581    1.84041914800683   -1.44424418728997
H        -3.37923946373486   -0.28739866036865   -0.02457180586806
H        -3.15499442464393    1.82855297455639   -3.16633693248706
H        -4.20883833154651   -0.40054959773229   -2.95000693865638
C         3.89289490512541    0.38138147124157   -0.72415312749972
C         6.15768227061954   -0.92420627473471    0.62133977202187
C         6.32976699419724   -0.16520279176983   -0.69082925653019
C         4.73438529100680   -1.45850744864685    0.75052323263954
C         5.30401330235293    0.96103860938023   -0.81191620449425
C         3.73550218641453   -0.31483473021424    0.62718412296699
H         6.87170757798578   -1.74835782910912    0.66684197572238
H         6.36898864652495   -0.25235860669170    1.45714572197472
H         7.33827538838980    0.24919930516018   -0.75168430796136
H         4.53770173337365   -2.19327319506803   -0.03201509873948
H         6.20021762747521   -0.85688721087550   -1.52580650229985
H         4.61346714478026   -1.95682541489425    1.71458608020899
H         5.45743271789578    1.48830057030842   -1.75551220738231
H         3.91385675372284    0.41042538160425    1.42576630556374
H         5.44946083303994    1.68102973211328   -0.00257001155901
H         2.70980289595226   -0.68969171528772    0.72652784712149
H         3.76183728365384   -0.36556896718287   -1.51549435176089
