  132
FINAL HEAT OF FORMATION =  -180.409470
 C     2.973024     1.067324    -0.601623
 H     3.333283     1.142757    -1.625453
 H     1.952272     1.492560    -0.611379
 C     3.833184     1.922705     0.315015
 H     3.488810     1.846163     1.350599
 H     4.876392     1.605468     0.291043
 C     3.777560     3.393320    -0.117879
 H     4.158262     3.478226    -1.138984
 H     2.740548     3.736668    -0.123324
 C     4.595527     4.291902     0.805714
 H     4.226340     4.190290     1.829211
 H     5.638486     3.967181     0.798469
 C     4.517252     5.753290     0.381258
 H     3.486660     6.102214     0.402171
 H     5.105277     6.379384     1.048247
 H     4.898061     5.877122    -0.630260
 C     3.907034    -1.045025    -0.672720
 H     3.366121    -2.006100    -0.774690
 C     5.050632    -1.277167     0.335189
 H     4.698897    -1.799596     1.226857
 H     5.526757    -0.348662     0.660517
 N     6.100671    -2.123171    -0.209418
 H     6.570822    -1.724183    -1.009860
 S     5.730798    -3.728351    -0.528616
 O     4.434363    -3.896854    -1.132705
 O     6.862856    -4.231251    -1.252515
 C     5.706648    -4.380202     1.128883
 C     6.907125    -4.459864     1.807155
 C     4.512431    -4.737234     1.718919
 C     6.909479    -4.911328     3.115499
 H     7.812141    -4.173229     1.296083
 C     4.517361    -5.175830     3.033632
 H     3.597447    -4.657851     1.156342
 C     5.713604    -5.261739     3.726269
 H     7.838602    -4.983913     3.660968
 H     3.585948    -5.432061     3.512275
 H     5.717433    -5.602752     4.751114
 C     4.475593    -0.756217    -2.019741
 C     5.523818     0.149845    -2.217539
 C     6.066550     0.357281    -3.471203
 C     5.582453    -0.336038    -4.567791
 C     4.556784    -1.248236    -4.389668
 C     4.015210    -1.456008    -3.134984
 H     5.922952     0.707466    -1.383567
 H     6.876058     1.063339    -3.592575
 H     6.007923    -0.173869    -5.547064
 H     4.183185    -1.811258    -5.232963
 H     3.248293    -2.202047    -3.009548
Br     2.166747    -2.127398     2.032746
Ni     2.306815    -0.472837     0.363429
 N     0.729002    -1.030540    -0.821578
 N     0.746443     0.526203     1.420500
 C     0.491465    -1.675487    -2.098869
 C    -0.976452    -1.321582    -2.442487
 N    -1.383621    -0.476916    -1.327003
 C    -0.344536    -0.416165    -0.451927
 C    -0.372649     0.181200     0.876036
 N    -1.482300     0.373431     1.635026
 C    -1.061443     0.976755     2.893614
 C     0.479098     0.936469     2.793825
 H     1.178915    -1.241297    -2.835998
 C     0.792285    -3.187091    -2.005004
 H     1.849536    -3.284822    -1.738312
 C    -0.005423    -3.878589    -0.904136
 H     0.316626    -4.913027    -0.818660
 H     0.173748    -3.393984     0.052926
 H    -1.072658    -3.875617    -1.115878
 C     0.578228    -3.860616    -3.357503
 H     1.150344    -3.357747    -4.134285
 H     0.908921    -4.894503    -3.307189
 H    -0.471650    -3.851751    -3.645307
 H    -1.067054    -0.774445    -3.384700
 H    -1.607666    -2.212186    -2.498000
 C    -2.455327     0.415394    -1.417251
 C    -3.662342    -0.008424    -1.963284
 C    -4.708192     0.885450    -2.055092
 C    -4.560318     2.198666    -1.641867
 C    -3.350637     2.652734    -1.130152
 C    -2.309709     1.738635    -1.015964
 H    -3.777637    -1.025171    -2.300505
 H    -5.653549     0.558875    -2.462130
 H    -5.400507     2.864709    -1.741150
 C    -3.115729     4.101953    -0.729580
 C    -2.814271     4.167111     0.772512
 H    -3.687782     3.858974     1.343628
 H    -1.983230     3.516124     1.027079
 H    -2.557046     5.184450     1.060727
 C    -1.919304     4.652136    -1.520074
 H    -2.095153     4.550419    -2.588890
 H    -1.775394     5.706347    -1.293509
 H    -1.000517     4.127286    -1.273956
 C    -4.324062     4.997055    -1.016004
 H    -4.093631     6.019176    -0.722437
 H    -4.566850     4.997866    -2.075975
 H    -5.195352     4.675840    -0.450146
 H    -1.350269     2.051769    -0.631589
 C    -2.766672    -0.165271     1.479909
 C    -3.867432     0.624179     1.795129
 C    -5.133763     0.095889     1.664236
 C    -5.312475    -1.216979     1.264811
 C    -4.224307    -2.037745     0.990409
 C    -2.951052    -1.484302     1.082464
 H    -3.727290     1.639554     2.128224
 H    -5.994831     0.708907     1.885885
 H    -6.318058    -1.594350     1.188245
 C    -4.394788    -3.500639     0.605055
 C    -3.404813    -4.371647     1.391057
 H    -3.525484    -4.206582     2.459270
 H    -3.591003    -5.422948     1.182924
 H    -2.373317    -4.161018     1.127278
 C    -4.131352    -3.641795    -0.899226
 H    -4.185075    -4.687015    -1.196398
 H    -4.872143    -3.081534    -1.466889
 H    -3.144547    -3.261261    -1.147842
 C    -5.806643    -4.019486     0.898190
 H    -5.850286    -5.085930     0.687424
 H    -6.064697    -3.869578     1.943905
 H    -6.550357    -3.530234     0.273780
 H    -2.075763    -2.080653     0.877270
 H    -1.440952     0.395435     3.736152
 H    -1.444099     1.999428     2.972443
 H     0.882841     0.149427     3.445822
 C     1.195722     2.243177     3.164091
 H     2.262986     2.053531     3.010967
 C     0.980245     2.570405     4.638777
 H     1.540501     3.462568     4.908798
 H    -0.071742     2.752027     4.848445
 H     1.318584     1.749037     5.265782
 C     0.786741     3.414540     2.274946
 H     1.480368     4.241794     2.404838
 H     0.801167     3.115750     1.229039
 H    -0.208515     3.774165     2.527308
